FoamFile
{
    version     2.0;
    format      ascii;
    class       dictionary;
    object      decomposeParDict;
}

numberOfSubdomains 8;

method scotch;
hierarchicalCoeffs
{
    n (5 5 1);
    delta 0.001;
    order xyz;
}

distributed false;
roots
(
);

