FoamFile
{
    version     2.0;
    format      ascii;
    class       volScalarField;
    object      p;
}

dimensions      [0 2 -2 0 0 0 0];

internalField   uniform 0;

boundaryField
{
    INLET
    {
        type            uniformFixedValue;
	    uniformValue	table
                        (
                            (0 1.3332)
                            (3e-3 1.3332)
                            (3.1e-3 0)
                            (1e-2 0)
                        );
    }
    INTERFACE
    {
        type            zeroGradient;
    }
    OUTLET
    {
        type            fixedValue;
        value           uniform 0;
    }
}
